Version 4
SHEET 1 880 680
WIRE 368 160 368 48
WIRE 336 208 272 208
WIRE 160 336 160 256
WIRE 368 336 368 224
FLAG 368 336 0
FLAG 160 336 0
SYMBOL LM386 368 128 R0
SYMATTR InstName U1
SYMBOL pot 176 240 R180
SYMATTR InstName X1
SYMBOL cap 272 192 R90
WINDOW 0 0 32 VBottom 2
WINDOW 3 32 32 VTop 2
SYMATTR InstName C1
SYMATTR Value 470p
