Version 4
SHEET 1 1020 680
WIRE 160 -192 64 -192
WIRE 256 -192 160 -192
WIRE 416 -192 352 -192
WIRE 592 -192 416 -192
WIRE 640 -192 592 -192
WIRE 416 -176 416 -192
WIRE 640 -176 640 -192
WIRE 64 -160 64 -192
WIRE 160 -160 160 -192
WIRE 256 -160 256 -192
WIRE 352 -112 352 -192
WIRE 368 -112 352 -112
WIRE 592 -112 592 -192
WIRE 64 -48 64 -80
WIRE 160 -48 160 -96
WIRE 256 -48 256 -96
WIRE 416 -48 416 -64
WIRE 640 -48 640 -64
WIRE 416 48 416 32
WIRE 640 48 640 32
WIRE 416 128 416 112
WIRE 416 128 384 128
WIRE 160 144 -112 144
WIRE -112 160 -112 144
WIRE 352 160 352 -112
WIRE 368 160 368 128
WIRE 384 160 384 128
WIRE 336 176 304 176
WIRE 640 192 640 112
WIRE 640 192 400 192
WIRE 704 192 640 192
WIRE 848 192 768 192
WIRE 336 208 272 208
WIRE 848 240 848 192
WIRE 384 256 384 224
WIRE 416 256 384 256
WIRE -112 272 -112 240
WIRE 416 272 416 256
WIRE 160 352 160 256
WIRE 304 352 304 176
WIRE 368 352 368 224
WIRE 416 352 416 336
WIRE 848 352 848 320
FLAG 368 352 0
FLAG 160 352 0
FLAG 304 352 0
FLAG 64 -48 0
FLAG 160 -48 0
FLAG 256 -48 0
FLAG 416 352 0
FLAG 848 352 0
FLAG -112 352 0
FLAG 160 -192 Vs
FLAG 368 128 Vs
FLAG 848 192 Vout
SYMBOL LM386 368 128 R0
SYMATTR InstName U1
SYMBOL cap 272 192 R90
WINDOW 0 0 32 VBottom 2
WINDOW 3 32 32 VTop 2
SYMATTR InstName C1
SYMATTR Value 4.7µ
SYMBOL voltage -112 144 R0
SYMATTR InstName Vin
SYMATTR Value AC 1
SYMBOL voltage 64 -176 R0
WINDOW 123 0 0 Left 2
WINDOW 39 0 0 Left 2
SYMATTR InstName Vs
SYMATTR Value 12
SYMBOL polcap 144 -160 R0
WINDOW 3 24 56 Left 2
SYMATTR Value 10µ
SYMATTR InstName C6
SYMATTR Description Capacitor
SYMATTR Type cap
SYMATTR SpiceLine V=35 Irms=0 Rser=0.3 Lser=0 mfg="AVX" pn="TPSD106M035R0300" type="Tantalum"
SYMBOL cap 240 -160 R0
SYMATTR InstName C7
SYMATTR Value 0.1µ
SYMATTR SpiceLine V=25 Irms=728m Rser=0.14361 Lser=0 mfg="KEMET" pn="C0603C104K3RAC" type="X7R"
SYMBOL cap 400 272 R0
SYMATTR InstName C5
SYMATTR Value 0.1µ
SYMBOL polcap 704 208 R270
WINDOW 0 32 32 VTop 2
WINDOW 3 0 32 VBottom 2
SYMATTR InstName C2
SYMATTR Value 2200µ
SYMATTR Description Capacitor
SYMATTR Type cap
SYMBOL res 832 224 R0
SYMATTR InstName Speaker
SYMATTR Value 8
SYMBOL pot 176 240 R180
WINDOW 39 48 -28 Left 2
SYMATTR SpiceLine R=10k X={V}
SYMATTR InstName Vol
SYMBOL pot 624 -80 M180
WINDOW 39 48 28 Left 2
SYMATTR SpiceLine R=100k X={B}
SYMATTR InstName Bass
SYMBOL cap 400 48 R0
SYMATTR InstName C3
SYMATTR Value 10µ
SYMBOL pot 400 -80 M180
WINDOW 39 48 28 Left 2
SYMATTR SpiceLine R=10k X={G}
SYMATTR InstName Gain
SYMBOL cap 624 48 R0
SYMATTR InstName C4
SYMATTR Value 0.033µ
SYMBOL res 624 -64 R0
SYMATTR InstName R2
SYMATTR Value 10k
SYMBOL res 400 -64 R0
SYMATTR InstName R1
SYMATTR Value 100
SYMBOL voltage -112 256 R0
WINDOW 123 0 0 Left 2
WINDOW 39 0 0 Left 2
SYMATTR InstName Vb
SYMATTR Value {Vb}
TEXT -106 -16 Left 2 !.ac dec 100 1 22050
TEXT -112 40 Left 2 !.param V 1
TEXT -112 112 Left 2 !.step param B 0 1 0.1
TEXT -112 64 Left 2 !.param B 1
TEXT -112 88 Left 2 !.param G 0
TEXT -112 16 Left 2 !.param Vb 0
