Version 4
SHEET 1 880 680
WIRE 368 48 -80 48
WIRE 304 128 256 128
WIRE 256 144 256 128
WIRE 368 160 368 48
WIRE 176 176 48 176
WIRE 304 176 304 128
WIRE 336 176 304 176
WIRE 336 208 304 208
WIRE 304 256 304 208
WIRE 304 256 176 256
WIRE 368 336 368 224
FLAG 544 336 0
FLAG 368 336 0
FLAG 48 256 0
FLAG 176 336 0
FLAG 256 144 0
FLAG -80 128 0
SYMBOL LM386 368 128 R0
SYMATTR InstName U1
SYMBOL voltage 48 160 R0
SYMATTR InstName V1
SYMBOL res 160 240 R0
SYMATTR InstName R1
SYMBOL cap 528 272 R0
SYMATTR InstName C1
SYMBOL res 160 160 R0
SYMATTR InstName R2
SYMBOL voltage -80 32 R0
SYMATTR InstName V2
