Version 4
SHEET 1 952 680
WIRE 544 -208 352 -208
WIRE 544 -192 544 -208
WIRE -32 -144 -128 -144
WIRE 64 -144 -32 -144
WIRE 352 -144 352 -208
WIRE 496 -144 352 -144
WIRE -128 -112 -128 -144
WIRE -32 -112 -32 -144
WIRE 64 -112 64 -144
WIRE 352 -96 352 -144
WIRE 416 -96 352 -96
WIRE 416 -80 416 -96
WIRE 544 -48 544 -80
WIRE 352 -32 352 -96
WIRE 368 -32 352 -32
WIRE -128 0 -128 -32
WIRE -32 0 -32 -48
WIRE 64 0 64 -48
WIRE 416 32 384 32
WIRE 384 64 384 32
WIRE 544 64 544 32
WIRE 160 144 -128 144
WIRE 352 160 352 -32
WIRE 384 160 384 128
WIRE -128 176 -128 144
WIRE 336 176 304 176
WIRE 544 192 544 128
WIRE 544 192 400 192
WIRE 608 192 544 192
WIRE 688 192 672 192
WIRE 336 208 272 208
WIRE 688 240 688 192
WIRE 384 256 384 224
WIRE 432 256 384 256
WIRE -128 304 -128 256
WIRE 160 336 160 256
WIRE 304 336 304 176
WIRE 368 336 368 224
WIRE 432 336 432 320
WIRE 688 336 688 320
FLAG 368 336 0
FLAG 160 336 0
FLAG 304 336 0
FLAG -128 0 0
FLAG -32 0 0
FLAG 64 0 0
FLAG 432 336 0
FLAG 688 336 0
FLAG -128 304 0
FLAG -32 -144 Vs
FLAG 368 160 Vs
SYMBOL LM386 368 128 R0
SYMATTR InstName U1
SYMBOL cap 272 192 R90
WINDOW 0 0 32 VBottom 2
WINDOW 3 32 32 VTop 2
SYMATTR InstName C1
SYMATTR Value 470p
SYMBOL voltage -128 160 R0
SYMATTR InstName Vin
SYMBOL voltage -128 -128 R0
WINDOW 123 0 0 Left 2
WINDOW 39 0 0 Left 2
SYMATTR InstName Vs
SYMATTR Value 12
SYMBOL polcap -48 -112 R0
WINDOW 3 24 56 Left 2
SYMATTR InstName C2
SYMATTR Value 10µ
SYMATTR Description Capacitor
SYMATTR Type cap
SYMATTR SpiceLine V=35 Irms=0 Rser=0.3 Lser=0 mfg="AVX" pn="TPSD106M035R0300" type="Tantalum"
SYMBOL cap 48 -112 R0
SYMATTR InstName C3
SYMATTR Value 0.1µ
SYMATTR SpiceLine V=25 Irms=728m Rser=0.14361 Lser=0 mfg="KEMET" pn="C0603C104K3RAC" type="X7R"
SYMBOL cap 416 256 R0
SYMATTR InstName C4
SYMATTR Value 0.1µ
SYMATTR SpiceLine V=25 Irms=728m Rser=0.14361 Lser=0 mfg="KEMET" pn="C0603C104K3RAC" type="X7R"
SYMBOL polcap 608 208 R270
WINDOW 0 32 32 VTop 2
WINDOW 3 0 32 VBottom 2
SYMATTR InstName C5
SYMATTR Value 2200µ
SYMATTR Description Capacitor
SYMATTR Type cap
SYMATTR SpiceLine V=25 Irms=1.55 Rser=0.06 Lser=0 mfg="Nichicon" pn="UPG1E222MRH" type="Al electrolytic"
SYMBOL res 672 224 R0
SYMATTR InstName Loudspeaker
SYMATTR Value 8
SYMBOL pot 176 240 R180
WINDOW 39 48 32 Invisible 2
SYMATTR InstName Vol
SYMBOL pot 528 -176 R0
WINDOW 39 48 32 Invisible 2
SYMATTR InstName Bass
SYMATTR SpiceLine R=100k x=1
SYMBOL cap 368 64 R0
SYMATTR InstName C7
SYMATTR Value 10µ
SYMBOL pot 400 -64 R0
WINDOW 39 48 32 Invisible 2
SYMATTR InstName Gain
SYMATTR SpiceLine R=100k x=1
SYMBOL cap 528 64 R0
SYMATTR InstName C6
SYMATTR Value 0.033µ
SYMBOL res 528 -64 R0
SYMATTR InstName R1
