Version 4
SHEET 1 880 680
WIRE 160 48 80 48
WIRE 160 128 80 128
WIRE 160 208 80 208
FLAG 80 48 1
FLAG 80 128 2
FLAG 80 208 3
SYMBOL res 144 32 R0
SYMATTR InstName R1
SYMATTR Value {Ra}
SYMBOL res 144 112 R0
SYMATTR InstName R2
SYMATTR Value {Rb}
TEXT 248 56 Left 2 !.param Ra=1e-6+R*X
TEXT 256 168 Left 2 !.param Rb=1e-6+R*(1-X)
